*SPEF "ieee 1481-1999"
*DESIGN "asmd_multiplier"
*DATE "11:11:11 Fri 11 11, 1111"
*VENDOR "OpenRCX"
*PROGRAM "Parallel Extraction"
*VERSION "1.0"
*DESIGN_FLOW "NAME_SCOPE LOCAL" "PIN_CAP NONE"
*DIVIDER /
*DELIMITER :
*BUS_DELIMITER []
*T_UNIT 1 NS
*C_UNIT 1 PF
*R_UNIT 1 OHM
*L_UNIT 1 HENRY

*NAME_MAP
*1 clk
*2 product[0]
*3 product[1]
*4 product[2]
*5 product[3]
*6 product[4]
*7 product[5]
*8 product[6]
*9 product[7]
*10 ready
*11 reset
*12 start
*15 word0[0]
*16 word0[1]
*17 word0[2]
*18 word0[3]
*19 word1[0]
*20 word1[1]
*21 word1[2]
*22 word1[3]
*23 _000_
*24 _001_
*25 _002_
*26 _003_
*27 _004_
*28 _005_
*29 _006_
*30 _007_
*31 _008_
*32 _009_
*33 _010_
*34 _011_
*35 _012_
*36 _013_
*37 _014_
*38 _015_
*39 _016_
*40 _017_
*41 _018_
*42 _019_
*43 _020_
*44 _021_
*45 _022_
*46 _023_
*47 _024_
*48 _025_
*49 _026_
*50 _027_
*51 _028_
*52 _029_
*53 _030_
*54 _031_
*55 _032_
*56 _033_
*57 _034_
*58 _035_
*59 _036_
*60 _037_
*61 _038_
*62 _039_
*63 _040_
*64 _041_
*65 _042_
*66 _043_
*67 _044_
*68 _045_
*69 _046_
*70 _047_
*71 _048_
*72 _049_
*73 _050_
*74 _051_
*75 _052_
*76 _053_
*77 _054_
*78 _055_
*79 _056_
*80 _057_
*81 _058_
*82 _059_
*83 _060_
*84 _061_
*85 _062_
*86 _063_
*87 _064_
*88 _065_
*89 _066_
*90 _067_
*91 _068_
*92 _069_
*93 _070_
*94 _071_
*95 _072_
*96 _073_
*97 _074_
*98 _075_
*99 _076_
*100 _077_
*101 _078_
*102 _079_
*103 _080_
*104 _081_
*105 _082_
*106 _083_
*107 _084_
*108 _085_
*109 _086_
*110 _087_
*111 _088_
*112 _089_
*113 _090_
*114 _091_
*115 _092_
*116 _093_
*117 _094_
*118 _095_
*119 _096_
*120 _097_
*121 _098_
*122 _099_
*123 _100_
*124 _101_
*125 _102_
*126 _103_
*127 _104_
*128 _105_
*129 _106_
*130 _107_
*131 _108_
*132 _109_
*133 _110_
*134 clknet_0_clk
*135 clknet_1_0_0_clk
*136 clknet_1_1_0_clk
*137 control_module0\.m0
*138 control_module0\.next_state
*139 control_module0\.state
*140 datapath_module0\.multiplicand\[0\]
*141 datapath_module0\.multiplicand\[1\]
*142 datapath_module0\.multiplicand\[2\]
*143 datapath_module0\.multiplicand\[3\]
*144 datapath_module0\.multiplicand\[4\]
*145 datapath_module0\.multiplicand\[5\]
*146 datapath_module0\.multiplicand\[6\]
*147 datapath_module0\.multiplicand\[7\]
*148 datapath_module0\.multiplier\[1\]
*149 datapath_module0\.multiplier\[2\]
*150 datapath_module0\.multiplier\[3\]
*151 net1
*152 net10
*153 net11
*154 net12
*155 net13
*156 net14
*157 net15
*158 net16
*159 net17
*160 net18
*161 net19
*162 net2
*163 net3
*164 net4
*165 net5
*166 net6
*167 net7
*168 net8
*169 net9
*170 ANTENNA__113__A
*171 ANTENNA__114__A
*172 ANTENNA__114__B
*173 ANTENNA__114__C
*174 ANTENNA__114__D
*175 ANTENNA__115__A
*176 ANTENNA__115__B
*177 ANTENNA__115__C
*178 ANTENNA__115__D
*179 ANTENNA__116__A
*180 ANTENNA__119__A2
*181 ANTENNA__119__B1
*182 ANTENNA__120__A2
*183 ANTENNA__120__B1
*184 ANTENNA__121__A2
*185 ANTENNA__121__B1
*186 ANTENNA__122__A1
*187 ANTENNA__122__A2
*188 ANTENNA__122__B1
*189 ANTENNA__129__B
*190 ANTENNA__130__A1
*191 ANTENNA__130__A2
*192 ANTENNA__130__B1
*193 ANTENNA__130__B2
*194 ANTENNA__131__B
*195 ANTENNA__132__A2
*196 ANTENNA__132__B1
*197 ANTENNA__132__B2
*198 ANTENNA__133__A
*199 ANTENNA__133__B
*200 ANTENNA__134__A2
*201 ANTENNA__134__B1
*202 ANTENNA__134__B2
*203 ANTENNA__135__A
*204 ANTENNA__136__A1
*205 ANTENNA__136__A2
*206 ANTENNA__136__B2
*207 ANTENNA__137__B
*208 ANTENNA__138__B
*209 ANTENNA__139__B
*210 ANTENNA__141__B
*211 ANTENNA__142__A
*212 ANTENNA__142__B
*213 ANTENNA__143__B
*214 ANTENNA__144__B
*215 ANTENNA__146__B
*216 ANTENNA__148__A
*217 ANTENNA__148__B
*218 ANTENNA__149__A
*219 ANTENNA__149__B
*220 ANTENNA__150__B
*221 ANTENNA__152__A1
*222 ANTENNA__152__A2
*223 ANTENNA__153__B
*224 ANTENNA__154__B
*225 ANTENNA__155__B
*226 ANTENNA__158__B
*227 ANTENNA__161__B1
*228 ANTENNA__161__C1
*229 ANTENNA__163__A
*230 ANTENNA__164__A
*231 ANTENNA__165__A
*232 ANTENNA__166__A1
*233 ANTENNA__166__A3
*234 ANTENNA__167__A
*235 ANTENNA__168__B1
*236 ANTENNA__168__B2
*237 ANTENNA__172__A1
*238 ANTENNA__172__B1
*239 ANTENNA__172__B2
*240 ANTENNA__176__A1
*241 ANTENNA__176__B1
*242 ANTENNA__176__B2
*243 ANTENNA__177__A1
*244 ANTENNA__177__A2
*245 ANTENNA__179__A1
*246 ANTENNA__179__B1
*247 ANTENNA__179__B2
*248 ANTENNA__181__A1
*249 ANTENNA__181__A2
*250 ANTENNA__182__A
*251 ANTENNA__182__B
*252 ANTENNA__183__A1
*253 ANTENNA__183__B1
*254 ANTENNA__183__B2
*255 ANTENNA__184__A1
*256 ANTENNA__185__A1
*257 ANTENNA__185__A2
*258 ANTENNA__185__B1
*259 ANTENNA__185__B2
*260 ANTENNA__188__A2
*261 ANTENNA__188__B1
*262 ANTENNA__188__B2
*263 ANTENNA__189__A
*264 ANTENNA__189__B
*265 ANTENNA__190__B1
*266 ANTENNA__190__B2
*267 ANTENNA__191__B2
*268 ANTENNA__192__A0
*269 ANTENNA__195__A
*270 ANTENNA__196__A2
*271 ANTENNA__196__B1
*272 ANTENNA__198__B1
*273 ANTENNA__198__B2
*274 ANTENNA__199__A3
*275 ANTENNA__199__B1
*276 ANTENNA__200__A
*277 ANTENNA__201__A
*278 ANTENNA__202__A
*279 ANTENNA__203__A
*280 ANTENNA__204__A
*281 ANTENNA__205__A
*282 ANTENNA__206__A
*283 ANTENNA__207__A
*284 ANTENNA__208__A
*285 ANTENNA__209__A
*286 ANTENNA__210__A
*287 ANTENNA__211__A
*288 ANTENNA__212__A
*289 ANTENNA__213__A
*290 ANTENNA__214__A
*291 ANTENNA__215__A
*292 ANTENNA__216__A
*293 ANTENNA__217__A
*294 ANTENNA__218__A
*295 ANTENNA__219__A
*296 ANTENNA__220__A
*297 ANTENNA__221__A
*298 ANTENNA__222__A
*299 ANTENNA__223__A
*300 ANTENNA__224__CLK
*301 ANTENNA__225__CLK
*302 ANTENNA__226__CLK
*303 ANTENNA__227__CLK
*304 ANTENNA__228__CLK
*305 ANTENNA__229__CLK
*306 ANTENNA__230__CLK
*307 ANTENNA__231__CLK
*308 ANTENNA__232__CLK
*309 ANTENNA__233__CLK
*310 ANTENNA__234__CLK
*311 ANTENNA__235__CLK
*312 ANTENNA__236__CLK
*313 ANTENNA__237__CLK
*314 ANTENNA__238__CLK
*315 ANTENNA__239__CLK
*316 ANTENNA__240__CLK
*317 ANTENNA__241__CLK
*318 ANTENNA__242__CLK
*319 ANTENNA__243__CLK
*320 ANTENNA__244__CLK
*321 ANTENNA_clkbuf_0_clk_A
*322 ANTENNA_clkbuf_1_0_0_clk_A
*323 ANTENNA_clkbuf_1_1_0_clk_A
*324 ANTENNA_input10_A
*325 ANTENNA_input1_A
*326 ANTENNA_input2_A
*327 ANTENNA_input3_A
*328 ANTENNA_input4_A
*329 ANTENNA_input5_A
*330 ANTENNA_input6_A
*331 ANTENNA_input7_A
*332 ANTENNA_input8_A
*333 ANTENNA_input9_A
*334 ANTENNA_output11_A
*335 ANTENNA_output12_A
*336 ANTENNA_output13_A
*337 ANTENNA_output14_A
*338 ANTENNA_output15_A
*339 ANTENNA_output16_A
*340 ANTENNA_output17_A
*341 ANTENNA_output18_A
*342 ANTENNA_output19_A
*343 FILLER_0_109
*344 FILLER_0_113
*345 FILLER_0_123
*346 FILLER_0_13
*347 FILLER_0_135
*348 FILLER_0_139
*349 FILLER_0_141
*350 FILLER_0_153
*351 FILLER_0_165
*352 FILLER_0_169
*353 FILLER_0_181
*354 FILLER_0_193
*355 FILLER_0_197
*356 FILLER_0_209
*357 FILLER_0_221
*358 FILLER_0_225
*359 FILLER_0_237
*360 FILLER_0_245
*361 FILLER_0_25
*362 FILLER_0_251
*363 FILLER_0_255
*364 FILLER_0_267
*365 FILLER_0_279
*366 FILLER_0_281
*367 FILLER_0_29
*368 FILLER_0_293
*369 FILLER_0_305
*370 FILLER_0_309
*371 FILLER_0_321
*372 FILLER_0_333
*373 FILLER_0_337
*374 FILLER_0_349
*375 FILLER_0_361
*376 FILLER_0_365
*377 FILLER_0_375
*378 FILLER_0_387
*379 FILLER_0_391
*380 FILLER_0_393
*381 FILLER_0_405
*382 FILLER_0_41
*383 FILLER_0_417
*384 FILLER_0_421
*385 FILLER_0_433
*386 FILLER_0_445
*387 FILLER_0_449
*388 FILLER_0_461
*389 FILLER_0_473
*390 FILLER_0_477
*391 FILLER_0_489
*392 FILLER_0_501
*393 FILLER_0_505
*394 FILLER_0_515
*395 FILLER_0_527
*396 FILLER_0_53
*397 FILLER_0_531
*398 FILLER_0_533
*399 FILLER_0_545
*400 FILLER_0_557
*401 FILLER_0_561
*402 FILLER_0_57
*403 FILLER_0_573
*404 FILLER_0_585
*405 FILLER_0_589
*406 FILLER_0_601
*407 FILLER_0_609
*408 FILLER_0_612
*409 FILLER_0_621
*410 FILLER_0_69
*411 FILLER_0_7
*412 FILLER_0_81
*413 FILLER_0_85
*414 FILLER_0_97
*415 FILLER_100_109
*416 FILLER_100_121
*417 FILLER_100_133
*418 FILLER_100_139
*419 FILLER_100_141
*420 FILLER_100_153
*421 FILLER_100_165
*422 FILLER_100_177
*423 FILLER_100_189
*424 FILLER_100_19
*425 FILLER_100_195
*426 FILLER_100_197
*427 FILLER_100_209
*428 FILLER_100_221
*429 FILLER_100_233
*430 FILLER_100_245
*431 FILLER_100_251
*432 FILLER_100_253
*433 FILLER_100_265
*434 FILLER_100_27
*435 FILLER_100_277
*436 FILLER_100_289
*437 FILLER_100_29
*438 FILLER_100_3
*439 FILLER_100_301
*440 FILLER_100_307
*441 FILLER_100_309
*442 FILLER_100_321
*443 FILLER_100_333
*444 FILLER_100_345
*445 FILLER_100_357
*446 FILLER_100_363
*447 FILLER_100_365
*448 FILLER_100_377
*449 FILLER_100_389
*450 FILLER_100_401
*451 FILLER_100_41
*452 FILLER_100_413
*453 FILLER_100_419
*454 FILLER_100_421
*455 FILLER_100_433
*456 FILLER_100_445
*457 FILLER_100_457
*458 FILLER_100_469
*459 FILLER_100_475
*460 FILLER_100_477
*461 FILLER_100_489
*462 FILLER_100_501
*463 FILLER_100_513
*464 FILLER_100_525
*465 FILLER_100_53
*466 FILLER_100_531
*467 FILLER_100_533
*468 FILLER_100_545
*469 FILLER_100_557
*470 FILLER_100_569
*471 FILLER_100_581
*472 FILLER_100_587
*473 FILLER_100_589
*474 FILLER_100_601
*475 FILLER_100_613
*476 FILLER_100_65
*477 FILLER_100_7
*478 FILLER_100_77
*479 FILLER_100_83
*480 FILLER_100_85
*481 FILLER_100_97
*482 FILLER_101_109
*483 FILLER_101_113
*484 FILLER_101_125
*485 FILLER_101_13
*486 FILLER_101_133
*487 FILLER_101_139
*488 FILLER_101_143
*489 FILLER_101_155
*490 FILLER_101_167
*491 FILLER_101_169
*492 FILLER_101_181
*493 FILLER_101_193
*494 FILLER_101_197
*495 FILLER_101_209
*496 FILLER_101_221
*497 FILLER_101_225
*498 FILLER_101_237
*499 FILLER_101_249
*500 FILLER_101_25
*501 FILLER_101_253
*502 FILLER_101_261
*503 FILLER_101_266
*504 FILLER_101_272
*505 FILLER_101_281
*506 FILLER_101_29
*507 FILLER_101_293
*508 FILLER_101_3
*509 FILLER_101_305
*510 FILLER_101_309
*511 FILLER_101_321
*512 FILLER_101_333
*513 FILLER_101_337
*514 FILLER_101_349
*515 FILLER_101_361
*516 FILLER_101_365
*517 FILLER_101_377
*518 FILLER_101_385
*519 FILLER_101_388
*520 FILLER_101_397
*521 FILLER_101_409
*522 FILLER_101_41
*523 FILLER_101_417
*524 FILLER_101_421
*525 FILLER_101_433
*526 FILLER_101_445
*527 FILLER_101_449
*528 FILLER_101_461
*529 FILLER_101_473
*530 FILLER_101_477
*531 FILLER_101_489
*532 FILLER_101_501
*533 FILLER_101_505
*534 FILLER_101_510
*535 FILLER_101_520
*536 FILLER_101_53
*537 FILLER_101_533
*538 FILLER_101_545
*539 FILLER_101_557
*540 FILLER_101_561
*541 FILLER_101_57
*542 FILLER_101_573
*543 FILLER_101_585
*544 FILLER_101_589
*545 FILLER_101_601
*546 FILLER_101_609
*547 FILLER_101_612
*548 FILLER_101_621
*549 FILLER_101_69
*550 FILLER_101_81
*551 FILLER_101_85
*552 FILLER_101_97
*553 FILLER_10_109
*554 FILLER_10_121
*555 FILLER_10_133
*556 FILLER_10_139
*557 FILLER_10_141
*558 FILLER_10_15
*559 FILLER_10_153
*560 FILLER_10_165
*561 FILLER_10_177
*562 FILLER_10_189
*563 FILLER_10_195
*564 FILLER_10_197
*565 FILLER_10_209
*566 FILLER_10_221
*567 FILLER_10_233
*568 FILLER_10_245
*569 FILLER_10_251
*570 FILLER_10_253
*571 FILLER_10_265
*572 FILLER_10_27
*573 FILLER_10_277
*574 FILLER_10_289
*575 FILLER_10_29
*576 FILLER_10_3
*577 FILLER_10_301
*578 FILLER_10_307
*579 FILLER_10_309
*580 FILLER_10_321
*581 FILLER_10_333
*582 FILLER_10_345
*583 FILLER_10_357
*584 FILLER_10_363
*585 FILLER_10_365
*586 FILLER_10_377
*587 FILLER_10_389
*588 FILLER_10_401
*589 FILLER_10_41
*590 FILLER_10_413
*591 FILLER_10_419
*592 FILLER_10_421
*593 FILLER_10_433
*594 FILLER_10_445
*595 FILLER_10_457
*596 FILLER_10_469
*597 FILLER_10_475
*598 FILLER_10_477
*599 FILLER_10_489
*600 FILLER_10_501
*601 FILLER_10_513
*602 FILLER_10_525
*603 FILLER_10_53
*604 FILLER_10_531
*605 FILLER_10_533
*606 FILLER_10_545
*607 FILLER_10_557
*608 FILLER_10_569
*609 FILLER_10_581
*610 FILLER_10_587
*611 FILLER_10_589
*612 FILLER_10_601
*613 FILLER_10_613
*614 FILLER_10_65
*615 FILLER_10_77
*616 FILLER_10_83
*617 FILLER_10_85
*618 FILLER_10_97
*619 FILLER_11_105
*620 FILLER_11_111
*621 FILLER_11_113
*622 FILLER_11_125
*623 FILLER_11_137
*624 FILLER_11_149
*625 FILLER_11_15
*626 FILLER_11_161
*627 FILLER_11_167
*628 FILLER_11_169
*629 FILLER_11_181
*630 FILLER_11_193
*631 FILLER_11_205
*632 FILLER_11_217
*633 FILLER_11_223
*634 FILLER_11_225
*635 FILLER_11_237
*636 FILLER_11_249
*637 FILLER_11_261
*638 FILLER_11_27
*639 FILLER_11_273
*640 FILLER_11_279
*641 FILLER_11_281
*642 FILLER_11_293
*643 FILLER_11_3
*644 FILLER_11_305
*645 FILLER_11_317
*646 FILLER_11_329
*647 FILLER_11_335
*648 FILLER_11_337
*649 FILLER_11_349
*650 FILLER_11_361
*651 FILLER_11_373
*652 FILLER_11_385
*653 FILLER_11_39
*654 FILLER_11_391
*655 FILLER_11_393
*656 FILLER_11_405
*657 FILLER_11_417
*658 FILLER_11_429
*659 FILLER_11_441
*660 FILLER_11_447
*661 FILLER_11_449
*662 FILLER_11_461
*663 FILLER_11_473
*664 FILLER_11_485
*665 FILLER_11_497
*666 FILLER_11_503
*667 FILLER_11_505
*668 FILLER_11_51
*669 FILLER_11_517
*670 FILLER_11_529
*671 FILLER_11_541
*672 FILLER_11_55
*673 FILLER_11_553
*674 FILLER_11_559
*675 FILLER_11_561
*676 FILLER_11_57
*677 FILLER_11_573
*678 FILLER_11_585
*679 FILLER_11_597
*680 FILLER_11_609
*681 FILLER_11_615
*682 FILLER_11_617
*683 FILLER_11_69
*684 FILLER_11_81
*685 FILLER_11_93
*686 FILLER_12_109
*687 FILLER_12_121
*688 FILLER_12_133
*689 FILLER_12_139
*690 FILLER_12_141
*691 FILLER_12_15
*692 FILLER_12_153
*693 FILLER_12_165
*694 FILLER_12_177
*695 FILLER_12_189
*696 FILLER_12_195
*697 FILLER_12_197
*698 FILLER_12_209
*699 FILLER_12_221
*700 FILLER_12_233
*701 FILLER_12_245
*702 FILLER_12_251
*703 FILLER_12_253
*704 FILLER_12_265
*705 FILLER_12_27
*706 FILLER_12_277
*707 FILLER_12_289
*708 FILLER_12_29
*709 FILLER_12_3
*710 FILLER_12_301
*711 FILLER_12_307
*712 FILLER_12_309
*713 FILLER_12_321
*714 FILLER_12_333
*715 FILLER_12_345
*716 FILLER_12_357
*717 FILLER_12_363
*718 FILLER_12_365
*719 FILLER_12_377
*720 FILLER_12_389
*721 FILLER_12_401
*722 FILLER_12_41
*723 FILLER_12_413
*724 FILLER_12_419
*725 FILLER_12_421
*726 FILLER_12_433
*727 FILLER_12_445
*728 FILLER_12_457
*729 FILLER_12_469
*730 FILLER_12_475
*731 FILLER_12_477
*732 FILLER_12_489
*733 FILLER_12_501
*734 FILLER_12_513
*735 FILLER_12_525
*736 FILLER_12_53
*737 FILLER_12_531
*738 FILLER_12_533
*739 FILLER_12_545
*740 FILLER_12_557
*741 FILLER_12_569
*742 FILLER_12_581
*743 FILLER_12_587
*744 FILLER_12_589
*745 FILLER_12_601
*746 FILLER_12_613
*747 FILLER_12_65
*748 FILLER_12_77
*749 FILLER_12_83
*750 FILLER_12_85
*751 FILLER_12_97
*752 FILLER_13_105
*753 FILLER_13_111
*754 FILLER_13_113
*755 FILLER_13_125
*756 FILLER_13_137
*757 FILLER_13_149
*758 FILLER_13_15
*759 FILLER_13_161
*760 FILLER_13_167
*761 FILLER_13_169
*762 FILLER_13_181
*763 FILLER_13_193
*764 FILLER_13_205
*765 FILLER_13_217
*766 FILLER_13_223
*767 FILLER_13_225
*768 FILLER_13_237
*769 FILLER_13_249
*770 FILLER_13_261
*771 FILLER_13_27
*772 FILLER_13_273
*773 FILLER_13_279
*774 FILLER_13_281
*775 FILLER_13_293
*776 FILLER_13_3
*777 FILLER_13_305
*778 FILLER_13_317
*779 FILLER_13_329
*780 FILLER_13_335
*781 FILLER_13_337
*782 FILLER_13_349
*783 FILLER_13_361
*784 FILLER_13_373
*785 FILLER_13_385
*786 FILLER_13_39
*787 FILLER_13_391
*788 FILLER_13_393
*789 FILLER_13_405
*790 FILLER_13_417
*791 FILLER_13_429
*792 FILLER_13_441
*793 FILLER_13_447
*794 FILLER_13_449
*795 FILLER_13_461
*796 FILLER_13_473
*797 FILLER_13_485
*798 FILLER_13_497
*799 FILLER_13_503
*800 FILLER_13_505
*801 FILLER_13_51
*802 FILLER_13_517
*803 FILLER_13_529
*804 FILLER_13_541
*805 FILLER_13_55
*806 FILLER_13_553
*807 FILLER_13_559
*808 FILLER_13_561
*809 FILLER_13_57
*810 FILLER_13_573
*811 FILLER_13_585
*812 FILLER_13_597
*813 FILLER_13_609
*814 FILLER_13_615
*815 FILLER_13_617
*816 FILLER_13_69
*817 FILLER_13_81
*818 FILLER_13_93
*819 FILLER_14_109
*820 FILLER_14_121
*821 FILLER_14_133
*822 FILLER_14_139
*823 FILLER_14_141
*824 FILLER_14_15
*825 FILLER_14_153
*826 FILLER_14_165
*827 FILLER_14_177
*828 FILLER_14_189
*829 FILLER_14_195
*830 FILLER_14_197
*831 FILLER_14_209
*832 FILLER_14_221
*833 FILLER_14_233
*834 FILLER_14_245
*835 FILLER_14_251
*836 FILLER_14_253
*837 FILLER_14_265
*838 FILLER_14_27
*839 FILLER_14_277
*840 FILLER_14_289
*841 FILLER_14_29
*842 FILLER_14_3
*843 FILLER_14_301
*844 FILLER_14_307
*845 FILLER_14_309
*846 FILLER_14_321
*847 FILLER_14_333
*848 FILLER_14_345
*849 FILLER_14_357
*850 FILLER_14_363
*851 FILLER_14_365
*852 FILLER_14_377
*853 FILLER_14_389
*854 FILLER_14_401
*855 FILLER_14_41
*856 FILLER_14_413
*857 FILLER_14_419
*858 FILLER_14_421
*859 FILLER_14_433
*860 FILLER_14_445
*861 FILLER_14_457
*862 FILLER_14_469
*863 FILLER_14_475
*864 FILLER_14_477
*865 FILLER_14_489
*866 FILLER_14_501
*867 FILLER_14_513
*868 FILLER_14_525
*869 FILLER_14_53
*870 FILLER_14_531
*871 FILLER_14_533
*872 FILLER_14_545
*873 FILLER_14_557
*874 FILLER_14_569
*875 FILLER_14_581
*876 FILLER_14_587
*877 FILLER_14_589
*878 FILLER_14_601
*879 FILLER_14_613
*880 FILLER_14_65
*881 FILLER_14_77
*882 FILLER_14_83
*883 FILLER_14_85
*884 FILLER_14_97
*885 FILLER_15_105
*886 FILLER_15_111
*887 FILLER_15_113
*888 FILLER_15_125
*889 FILLER_15_137
*890 FILLER_15_149
*891 FILLER_15_15
*892 FILLER_15_161
*893 FILLER_15_167
*894 FILLER_15_169
*895 FILLER_15_181
*896 FILLER_15_193
*897 FILLER_15_205
*898 FILLER_15_217
*899 FILLER_15_223
*900 FILLER_15_225
*901 FILLER_15_237
*902 FILLER_15_249
*903 FILLER_15_261
*904 FILLER_15_27
*905 FILLER_15_273
*906 FILLER_15_279
*907 FILLER_15_281
*908 FILLER_15_293
*909 FILLER_15_3
*910 FILLER_15_305
*911 FILLER_15_317
*912 FILLER_15_329
*913 FILLER_15_335
*914 FILLER_15_337
*915 FILLER_15_349
*916 FILLER_15_361
*917 FILLER_15_373
*918 FILLER_15_385
*919 FILLER_15_39
*920 FILLER_15_391
*921 FILLER_15_393
*922 FILLER_15_405
*923 FILLER_15_417
*924 FILLER_15_429
*925 FILLER_15_441
*926 FILLER_15_447
*927 FILLER_15_449
*928 FILLER_15_461
*929 FILLER_15_473
*930 FILLER_15_485
*931 FILLER_15_497
*932 FILLER_15_503
*933 FILLER_15_505
*934 FILLER_15_51
*935 FILLER_15_517
*936 FILLER_15_529
*937 FILLER_15_541
*938 FILLER_15_55
*939 FILLER_15_553
*940 FILLER_15_559
*941 FILLER_15_561
*942 FILLER_15_57
*943 FILLER_15_573
*944 FILLER_15_585
*945 FILLER_15_597
*946 FILLER_15_609
*947 FILLER_15_615
*948 FILLER_15_617
*949 FILLER_15_69
*950 FILLER_15_81
*951 FILLER_15_93
*952 FILLER_16_109
*953 FILLER_16_121
*954 FILLER_16_133
*955 FILLER_16_139
*956 FILLER_16_141
*957 FILLER_16_15
*958 FILLER_16_153
*959 FILLER_16_165
*960 FILLER_16_177
*961 FILLER_16_189
*962 FILLER_16_195
*963 FILLER_16_197
*964 FILLER_16_209
*965 FILLER_16_221
*966 FILLER_16_233
*967 FILLER_16_245
*968 FILLER_16_251
*969 FILLER_16_253
*970 FILLER_16_265
*971 FILLER_16_27
*972 FILLER_16_277
*973 FILLER_16_289
*974 FILLER_16_29
*975 FILLER_16_3
*976 FILLER_16_301
*977 FILLER_16_307
*978 FILLER_16_309
*979 FILLER_16_321
*980 FILLER_16_333
*981 FILLER_16_345
*982 FILLER_16_357
*983 FILLER_16_363
*984 FILLER_16_365
*985 FILLER_16_377
*986 FILLER_16_389
*987 FILLER_16_401
*988 FILLER_16_41
*989 FILLER_16_413
*990 FILLER_16_419
*991 FILLER_16_421
*992 FILLER_16_433
*993 FILLER_16_445
*994 FILLER_16_457
*995 FILLER_16_469
*996 FILLER_16_475
*997 FILLER_16_477
*998 FILLER_16_489
*999 FILLER_16_501
*1000 FILLER_16_513
*1001 FILLER_16_525
*1002 FILLER_16_53
*1003 FILLER_16_531
*1004 FILLER_16_533
*1005 FILLER_16_545
*1006 FILLER_16_557
*1007 FILLER_16_569
*1008 FILLER_16_581
*1009 FILLER_16_587
*1010 FILLER_16_589
*1011 FILLER_16_601
*1012 FILLER_16_613
*1013 FILLER_16_65
*1014 FILLER_16_77
*1015 FILLER_16_83
*1016 FILLER_16_85
*1017 FILLER_16_97
*1018 FILLER_17_105
*1019 FILLER_17_111
*1020 FILLER_17_113
*1021 FILLER_17_125
*1022 FILLER_17_137
*1023 FILLER_17_149
*1024 FILLER_17_15
*1025 FILLER_17_161
*1026 FILLER_17_167
*1027 FILLER_17_169
*1028 FILLER_17_181
*1029 FILLER_17_193
*1030 FILLER_17_205
*1031 FILLER_17_217
*1032 FILLER_17_223
*1033 FILLER_17_225
*1034 FILLER_17_237
*1035 FILLER_17_249
*1036 FILLER_17_261
*1037 FILLER_17_27
*1038 FILLER_17_273
*1039 FILLER_17_279
*1040 FILLER_17_281
*1041 FILLER_17_293
*1042 FILLER_17_3
*1043 FILLER_17_305
*1044 FILLER_17_317
*1045 FILLER_17_329
*1046 FILLER_17_335
*1047 FILLER_17_337
*1048 FILLER_17_349
*1049 FILLER_17_361
*1050 FILLER_17_373
*1051 FILLER_17_385
*1052 FILLER_17_39
*1053 FILLER_17_391
*1054 FILLER_17_393
*1055 FILLER_17_405
*1056 FILLER_17_417
*1057 FILLER_17_429
*1058 FILLER_17_441
*1059 FILLER_17_447
*1060 FILLER_17_449
*1061 FILLER_17_461
*1062 FILLER_17_473
*1063 FILLER_17_485
*1064 FILLER_17_497
*1065 FILLER_17_503
*1066 FILLER_17_505
*1067 FILLER_17_51
*1068 FILLER_17_517
*1069 FILLER_17_529
*1070 FILLER_17_541
*1071 FILLER_17_55
*1072 FILLER_17_553
*1073 FILLER_17_559
*1074 FILLER_17_561
*1075 FILLER_17_57
*1076 FILLER_17_573
*1077 FILLER_17_585
*1078 FILLER_17_597
*1079 FILLER_17_609
*1080 FILLER_17_615
*1081 FILLER_17_617
*1082 FILLER_17_69
*1083 FILLER_17_81
*1084 FILLER_17_93
*1085 FILLER_18_109
*1086 FILLER_18_121
*1087 FILLER_18_133
*1088 FILLER_18_139
*1089 FILLER_18_141
*1090 FILLER_18_153
*1091 FILLER_18_165
*1092 FILLER_18_17
*1093 FILLER_18_177
*1094 FILLER_18_189
*1095 FILLER_18_195
*1096 FILLER_18_197
*1097 FILLER_18_209
*1098 FILLER_18_221
*1099 FILLER_18_233
*1100 FILLER_18_245
*1101 FILLER_18_25
*1102 FILLER_18_251
*1103 FILLER_18_253
*1104 FILLER_18_265
*1105 FILLER_18_277
*1106 FILLER_18_289
*1107 FILLER_18_29
*1108 FILLER_18_301
*1109 FILLER_18_307
*1110 FILLER_18_309
*1111 FILLER_18_321
*1112 FILLER_18_333
*1113 FILLER_18_345
*1114 FILLER_18_357
*1115 FILLER_18_363
*1116 FILLER_18_365
*1117 FILLER_18_377
*1118 FILLER_18_389
*1119 FILLER_18_401
*1120 FILLER_18_41
*1121 FILLER_18_413
*1122 FILLER_18_419
*1123 FILLER_18_421
*1124 FILLER_18_433
*1125 FILLER_18_445
*1126 FILLER_18_457
*1127 FILLER_18_469
*1128 FILLER_18_475
*1129 FILLER_18_477
*1130 FILLER_18_489
*1131 FILLER_18_5
*1132 FILLER_18_501
*1133 FILLER_18_513
*1134 FILLER_18_525
*1135 FILLER_18_53
*1136 FILLER_18_531
*1137 FILLER_18_533
*1138 FILLER_18_545
*1139 FILLER_18_557
*1140 FILLER_18_569
*1141 FILLER_18_581
*1142 FILLER_18_587
*1143 FILLER_18_589
*1144 FILLER_18_601
*1145 FILLER_18_613
*1146 FILLER_18_65
*1147 FILLER_18_77
*1148 FILLER_18_83
*1149 FILLER_18_85
*1150 FILLER_18_97
*1151 FILLER_19_105
*1152 FILLER_19_111
*1153 FILLER_19_113
*1154 FILLER_19_125
*1155 FILLER_19_137
*1156 FILLER_19_149
*1157 FILLER_19_161
*1158 FILLER_19_167
*1159 FILLER_19_169
*1160 FILLER_19_181
*1161 FILLER_19_19
*1162 FILLER_19_193
*1163 FILLER_19_205
*1164 FILLER_19_217
*1165 FILLER_19_223
*1166 FILLER_19_225
*1167 FILLER_19_237
*1168 FILLER_19_249
*1169 FILLER_19_261
*1170 FILLER_19_273
*1171 FILLER_19_279
*1172 FILLER_19_281
*1173 FILLER_19_293
*1174 FILLER_19_305
*1175 FILLER_19_31
*1176 FILLER_19_317
*1177 FILLER_19_329
*1178 FILLER_19_335
*1179 FILLER_19_337
*1180 FILLER_19_349
*1181 FILLER_19_361
*1182 FILLER_19_373
*1183 FILLER_19_385
*1184 FILLER_19_391
*1185 FILLER_19_393
*1186 FILLER_19_405
*1187 FILLER_19_417
*1188 FILLER_19_429
*1189 FILLER_19_43
*1190 FILLER_19_441
*1191 FILLER_19_447
*1192 FILLER_19_449
*1193 FILLER_19_461
*1194 FILLER_19_473
*1195 FILLER_19_485
*1196 FILLER_19_497
*1197 FILLER_19_503
*1198 FILLER_19_505
*1199 FILLER_19_517
*1200 FILLER_19_529
*1201 FILLER_19_541
*1202 FILLER_19_55
*1203 FILLER_19_553
*1204 FILLER_19_559
*1205 FILLER_19_561
*1206 FILLER_19_57
*1207 FILLER_19_573
*1208 FILLER_19_585
*1209 FILLER_19_597
*1210 FILLER_19_609
*1211 FILLER_19_615
*1212 FILLER_19_617
*1213 FILLER_19_69
*1214 FILLER_19_7
*1215 FILLER_19_81
*1216 FILLER_19_93
*1217 FILLER_1_105
*1218 FILLER_1_111
*1219 FILLER_1_113
*1220 FILLER_1_117
*1221 FILLER_1_129
*1222 FILLER_1_141
*1223 FILLER_1_15
*1224 FILLER_1_153
*1225 FILLER_1_165
*1226 FILLER_1_169
*1227 FILLER_1_181
*1228 FILLER_1_193
*1229 FILLER_1_205
*1230 FILLER_1_217
*1231 FILLER_1_223
*1232 FILLER_1_225
*1233 FILLER_1_237
*1234 FILLER_1_249
*1235 FILLER_1_261
*1236 FILLER_1_27
*1237 FILLER_1_273
*1238 FILLER_1_279
*1239 FILLER_1_281
*1240 FILLER_1_293
*1241 FILLER_1_3
*1242 FILLER_1_305
*1243 FILLER_1_317
*1244 FILLER_1_329
*1245 FILLER_1_335
*1246 FILLER_1_337
*1247 FILLER_1_349
*1248 FILLER_1_361
*1249 FILLER_1_369
*1250 FILLER_1_381
*1251 FILLER_1_389
*1252 FILLER_1_39
*1253 FILLER_1_393
*1254 FILLER_1_405
*1255 FILLER_1_417
*1256 FILLER_1_429
*1257 FILLER_1_441
*1258 FILLER_1_447
*1259 FILLER_1_449
*1260 FILLER_1_461
*1261 FILLER_1_473
*1262 FILLER_1_485
*1263 FILLER_1_497
*1264 FILLER_1_503
*1265 FILLER_1_505
*1266 FILLER_1_509
*1267 FILLER_1_51
*1268 FILLER_1_521
*1269 FILLER_1_533
*1270 FILLER_1_545
*1271 FILLER_1_55
*1272 FILLER_1_557
*1273 FILLER_1_561
*1274 FILLER_1_57
*1275 FILLER_1_573
*1276 FILLER_1_585
*1277 FILLER_1_597
*1278 FILLER_1_609
*1279 FILLER_1_615
*1280 FILLER_1_617
*1281 FILLER_1_69
*1282 FILLER_1_81
*1283 FILLER_1_93
*1284 FILLER_20_109
*1285 FILLER_20_121
*1286 FILLER_20_133
*1287 FILLER_20_139
*1288 FILLER_20_141
*1289 FILLER_20_15
*1290 FILLER_20_153
*1291 FILLER_20_165
*1292 FILLER_20_177
*1293 FILLER_20_189
*1294 FILLER_20_195
*1295 FILLER_20_197
*1296 FILLER_20_209
*1297 FILLER_20_221
*1298 FILLER_20_233
*1299 FILLER_20_245
*1300 FILLER_20_251
*1301 FILLER_20_253
*1302 FILLER_20_265
*1303 FILLER_20_27
*1304 FILLER_20_277
*1305 FILLER_20_289
*1306 FILLER_20_29
*1307 FILLER_20_3
*1308 FILLER_20_301
*1309 FILLER_20_307
*1310 FILLER_20_309
*1311 FILLER_20_321
*1312 FILLER_20_333
*1313 FILLER_20_345
*1314 FILLER_20_357
*1315 FILLER_20_363
*1316 FILLER_20_365
*1317 FILLER_20_377
*1318 FILLER_20_389
*1319 FILLER_20_401
*1320 FILLER_20_41
*1321 FILLER_20_413
*1322 FILLER_20_419
*1323 FILLER_20_421
*1324 FILLER_20_433
*1325 FILLER_20_445
*1326 FILLER_20_457
*1327 FILLER_20_469
*1328 FILLER_20_475
*1329 FILLER_20_477
*1330 FILLER_20_489
*1331 FILLER_20_501
*1332 FILLER_20_513
*1333 FILLER_20_525
*1334 FILLER_20_53
*1335 FILLER_20_531
*1336 FILLER_20_533
*1337 FILLER_20_545
*1338 FILLER_20_557
*1339 FILLER_20_569
*1340 FILLER_20_581
*1341 FILLER_20_587
*1342 FILLER_20_589
*1343 FILLER_20_601
*1344 FILLER_20_613
*1345 FILLER_20_65
*1346 FILLER_20_77
*1347 FILLER_20_83
*1348 FILLER_20_85
*1349 FILLER_20_97
*1350 FILLER_21_105
*1351 FILLER_21_111
*1352 FILLER_21_113
*1353 FILLER_21_125
*1354 FILLER_21_137
*1355 FILLER_21_149
*1356 FILLER_21_15
*1357 FILLER_21_161
*1358 FILLER_21_167
*1359 FILLER_21_169
*1360 FILLER_21_181
*1361 FILLER_21_193
*1362 FILLER_21_205
*1363 FILLER_21_217
*1364 FILLER_21_223
*1365 FILLER_21_225
*1366 FILLER_21_237
*1367 FILLER_21_249
*1368 FILLER_21_261
*1369 FILLER_21_27
*1370 FILLER_21_273
*1371 FILLER_21_279
*1372 FILLER_21_281
*1373 FILLER_21_293
*1374 FILLER_21_3
*1375 FILLER_21_305
*1376 FILLER_21_317
*1377 FILLER_21_329
*1378 FILLER_21_335
*1379 FILLER_21_337
*1380 FILLER_21_349
*1381 FILLER_21_361
*1382 FILLER_21_373
*1383 FILLER_21_385
*1384 FILLER_21_39
*1385 FILLER_21_391
*1386 FILLER_21_393
*1387 FILLER_21_405
*1388 FILLER_21_417
*1389 FILLER_21_429
*1390 FILLER_21_441
*1391 FILLER_21_447
*1392 FILLER_21_449
*1393 FILLER_21_461
*1394 FILLER_21_473
*1395 FILLER_21_485
*1396 FILLER_21_497
*1397 FILLER_21_503
*1398 FILLER_21_505
*1399 FILLER_21_51
*1400 FILLER_21_517
*1401 FILLER_21_529
*1402 FILLER_21_541
*1403 FILLER_21_55
*1404 FILLER_21_553
*1405 FILLER_21_559
*1406 FILLER_21_561
*1407 FILLER_21_57
*1408 FILLER_21_573
*1409 FILLER_21_585
*1410 FILLER_21_597
*1411 FILLER_21_609
*1412 FILLER_21_615
*1413 FILLER_21_617
*1414 FILLER_21_69
*1415 FILLER_21_81
*1416 FILLER_21_93
*1417 FILLER_22_109
*1418 FILLER_22_121
*1419 FILLER_22_133
*1420 FILLER_22_139
*1421 FILLER_22_141
*1422 FILLER_22_15
*1423 FILLER_22_153
*1424 FILLER_22_165
*1425 FILLER_22_177
*1426 FILLER_22_189
*1427 FILLER_22_195
*1428 FILLER_22_197
*1429 FILLER_22_209
*1430 FILLER_22_221
*1431 FILLER_22_233
*1432 FILLER_22_245
*1433 FILLER_22_251
*1434 FILLER_22_253
*1435 FILLER_22_265
*1436 FILLER_22_27
*1437 FILLER_22_277
*1438 FILLER_22_289
*1439 FILLER_22_29
*1440 FILLER_22_3
*1441 FILLER_22_301
*1442 FILLER_22_307
*1443 FILLER_22_309
*1444 FILLER_22_321
*1445 FILLER_22_333
*1446 FILLER_22_345
*1447 FILLER_22_357
*1448 FILLER_22_363
*1449 FILLER_22_365
*1450 FILLER_22_377
*1451 FILLER_22_389
*1452 FILLER_22_401
*1453 FILLER_22_41
*1454 FILLER_22_413
*1455 FILLER_22_419
*1456 FILLER_22_421
*1457 FILLER_22_433
*1458 FILLER_22_445
*1459 FILLER_22_457
*1460 FILLER_22_469
*1461 FILLER_22_475
*1462 FILLER_22_477
*1463 FILLER_22_489
*1464 FILLER_22_501
*1465 FILLER_22_513
*1466 FILLER_22_525
*1467 FILLER_22_53
*1468 FILLER_22_531
*1469 FILLER_22_533
*1470 FILLER_22_545
*1471 FILLER_22_557
*1472 FILLER_22_569
*1473 FILLER_22_581
*1474 FILLER_22_587
*1475 FILLER_22_589
*1476 FILLER_22_601
*1477 FILLER_22_613
*1478 FILLER_22_65
*1479 FILLER_22_77
*1480 FILLER_22_83
*1481 FILLER_22_85
*1482 FILLER_22_97
*1483 FILLER_23_105
*1484 FILLER_23_111
*1485 FILLER_23_113
*1486 FILLER_23_125
*1487 FILLER_23_137
*1488 FILLER_23_149
*1489 FILLER_23_15
*1490 FILLER_23_161
*1491 FILLER_23_167
*1492 FILLER_23_169
*1493 FILLER_23_181
*1494 FILLER_23_193
*1495 FILLER_23_205
*1496 FILLER_23_217
*1497 FILLER_23_223
*1498 FILLER_23_225
*1499 FILLER_23_237
*1500 FILLER_23_249
*1501 FILLER_23_261
*1502 FILLER_23_27
*1503 FILLER_23_273
*1504 FILLER_23_279
*1505 FILLER_23_281
*1506 FILLER_23_293
*1507 FILLER_23_3
*1508 FILLER_23_305
*1509 FILLER_23_317
*1510 FILLER_23_329
*1511 FILLER_23_335
*1512 FILLER_23_337
*1513 FILLER_23_349
*1514 FILLER_23_361
*1515 FILLER_23_373
*1516 FILLER_23_385
*1517 FILLER_23_39
*1518 FILLER_23_391
*1519 FILLER_23_393
*1520 FILLER_23_405
*1521 FILLER_23_417
*1522 FILLER_23_429
*1523 FILLER_23_441
*1524 FILLER_23_447
*1525 FILLER_23_449
*1526 FILLER_23_461
*1527 FILLER_23_473
*1528 FILLER_23_485
*1529 FILLER_23_497
*1530 FILLER_23_503
*1531 FILLER_23_505
*1532 FILLER_23_51
*1533 FILLER_23_517
*1534 FILLER_23_529
*1535 FILLER_23_541
*1536 FILLER_23_55
*1537 FILLER_23_553
*1538 FILLER_23_559
*1539 FILLER_23_561
*1540 FILLER_23_57
*1541 FILLER_23_573
*1542 FILLER_23_585
*1543 FILLER_23_597
*1544 FILLER_23_609
*1545 FILLER_23_615
*1546 FILLER_23_617
*1547 FILLER_23_69
*1548 FILLER_23_81
*1549 FILLER_23_93
*1550 FILLER_24_109
*1551 FILLER_24_121
*1552 FILLER_24_133
*1553 FILLER_24_139
*1554 FILLER_24_141
*1555 FILLER_24_15
*1556 FILLER_24_153
*1557 FILLER_24_165
*1558 FILLER_24_177
*1559 FILLER_24_189
*1560 FILLER_24_195
*1561 FILLER_24_197
*1562 FILLER_24_209
*1563 FILLER_24_221
*1564 FILLER_24_233
*1565 FILLER_24_245
*1566 FILLER_24_251
*1567 FILLER_24_253
*1568 FILLER_24_265
*1569 FILLER_24_27
*1570 FILLER_24_277